Version 4
SHEET 1 1424 740
WIRE 48 80 -96 80
WIRE 192 80 112 80
WIRE 240 80 192 80
WIRE 416 80 320 80
WIRE 512 80 416 80
WIRE 688 80 512 80
WIRE 864 80 688 80
WIRE 1296 80 864 80
WIRE -384 96 -544 96
WIRE -272 96 -384 96
WIRE 512 112 512 80
WIRE -272 128 -272 96
WIRE -96 128 -96 80
WIRE 192 128 192 80
WIRE 416 128 416 80
WIRE -544 144 -544 96
WIRE 864 144 864 80
WIRE 752 192 704 192
WIRE -96 240 -96 208
WIRE 192 240 192 192
WIRE 192 240 -96 240
WIRE 352 240 192 240
WIRE 416 240 416 192
WIRE 416 240 352 240
WIRE 512 240 512 192
WIRE 512 240 416 240
WIRE 736 240 512 240
WIRE 864 240 864 224
WIRE 864 240 832 240
WIRE 352 256 352 240
WIRE 1296 256 1296 80
WIRE 1296 256 1248 256
WIRE 1328 256 1296 256
WIRE 1024 272 960 272
WIRE 1184 272 1088 272
WIRE 704 288 704 192
WIRE 704 288 592 288
WIRE 368 336 256 336
WIRE 592 336 592 288
WIRE 192 352 80 352
WIRE 1248 352 1248 256
WIRE 1328 352 1328 320
WIRE 288 368 256 368
WIRE 368 368 368 336
WIRE 448 368 368 368
WIRE 960 368 960 272
WIRE 976 368 960 368
WIRE 1088 368 1040 368
WIRE 1184 368 1184 272
WIRE 1184 368 1168 368
WIRE 80 416 80 352
WIRE 80 416 -464 416
WIRE 224 432 224 384
WIRE 1072 432 1024 432
WIRE -464 448 -464 416
WIRE 1024 448 1024 432
WIRE 1184 464 1184 368
WIRE 1184 464 1056 464
WIRE 1248 464 1248 432
WIRE 1248 464 1184 464
WIRE 1328 464 1328 432
WIRE 1328 464 1248 464
WIRE 448 480 448 368
WIRE 960 480 960 368
WIRE 960 480 448 480
WIRE 992 480 960 480
WIRE -544 496 -544 224
WIRE -544 496 -560 496
WIRE -480 496 -544 496
WIRE -272 496 -272 208
WIRE -272 496 -384 496
WIRE 1072 496 1072 432
WIRE 1072 496 1056 496
WIRE 1136 496 1072 496
WIRE 1248 496 1248 464
WIRE 288 544 288 368
WIRE -560 592 -560 496
FLAG 224 320 0
FLAG 288 624 0
FLAG 224 512 0
FLAG 1024 512 0
FLAG 1136 576 0
FLAG 1248 576 0
FLAG 688 80 Voutput
FLAG 352 256 0
FLAG -384 96 V_in
FLAG -560 592 0
FLAG 592 416 0
SYMBOL voltage -544 128 R0
WINDOW 123 0 0 Left 2
WINDOW 39 24 124 Left 2
SYMATTR SpiceLine Rser=0
SYMATTR InstName V1
SYMATTR Value 48
SYMBOL ind2 -288 224 M180
WINDOW 0 36 80 Left 2
WINDOW 3 36 40 Left 2
SYMATTR InstName L1
SYMATTR Value 1.3m
SYMATTR SpiceLine Rser=0
SYMATTR Type ind
SYMBOL cap 400 128 R0
SYMATTR InstName C1
SYMATTR Value 33µ
SYMATTR SpiceLine Rser=3m
SYMBOL Opamps\\UniversalOpamp2 224 352 R180
SYMATTR InstName U1
SYMBOL voltage 288 528 R0
WINDOW 123 0 0 Left 2
WINDOW 39 0 0 Left 2
SYMATTR InstName V2
SYMATTR Value PULSE(0 1.8 0 39.9u 0 0 40u)
SYMBOL voltage 224 416 R0
WINDOW 123 0 0 Left 2
WINDOW 39 0 0 Left 2
SYMATTR InstName V3
SYMATTR Value 5
SYMBOL res 1184 352 R90
WINDOW 0 0 56 VBottom 2
WINDOW 3 32 56 VTop 2
SYMATTR InstName R1
SYMATTR Value 54.6k
SYMBOL cap 1040 352 R90
WINDOW 0 0 32 VBottom 2
WINDOW 3 32 32 VTop 2
SYMATTR InstName CC1
SYMATTR Value 139.1n
SYMBOL cap 1088 256 R90
WINDOW 0 0 32 VBottom 2
WINDOW 3 32 32 VTop 2
SYMATTR InstName CC2
SYMATTR Value 2.33n
SYMBOL Opamps\\UniversalOpamp2 1024 480 M0
SYMATTR InstName U2
SYMBOL voltage 1136 480 R0
WINDOW 123 0 0 Left 2
WINDOW 39 0 0 Left 2
SYMATTR InstName V4
SYMATTR Value 2.4
SYMBOL res 1232 336 R0
SYMATTR InstName RF1
SYMATTR Value 170k
SYMBOL res 1312 336 R0
SYMATTR InstName RF3
SYMATTR Value 2.55k
SYMBOL cap 1312 256 R0
SYMATTR InstName CF3
SYMATTR Value 2.2n
SYMBOL res 1232 480 R0
SYMATTR InstName RF2
SYMATTR Value 32.4k
SYMBOL res 496 96 R0
SYMATTR InstName R5
SYMATTR Value 9.2
SYMBOL ind2 -80 224 R180
WINDOW 0 36 80 Left 2
WINDOW 3 36 40 Left 2
SYMATTR InstName L2
SYMATTR Value 5.2m
SYMATTR Type ind
SYMATTR SpiceLine Rser=0
SYMBOL ind 336 64 R90
WINDOW 0 5 56 VBottom 2
WINDOW 3 32 56 VTop 2
SYMATTR InstName L4
SYMATTR Value 0.68m
SYMATTR SpiceLine Rser=60m
SYMBOL nmos -384 448 R90
SYMATTR InstName M1
SYMATTR Value IPP147N12N3
SYMBOL diode 208 192 R180
WINDOW 0 24 64 Left 2
WINDOW 3 24 0 Left 2
SYMATTR InstName D1
SYMBOL diode 48 96 R270
WINDOW 0 32 32 VTop 2
WINDOW 3 0 32 VBottom 2
SYMATTR InstName D3
SYMBOL nmos 832 192 R90
SYMATTR InstName M2
SYMATTR Value IPP147N12N3
SYMBOL res 848 128 R0
SYMATTR InstName R2
SYMATTR Value 9.2
SYMBOL voltage 592 320 R0
WINDOW 123 0 0 Left 2
WINDOW 39 0 0 Left 2
SYMATTR InstName V5
SYMATTR Value PULSE(0 5 0 1u 0 15m)
TEXT -96 648 Left 2 !.tran 0 20ms 0 0.01ms
TEXT -256 264 Left 2 ;K L1 L2 1
TEXT -144 352 Left 2 !K L1 L2 1
