Version 4
SHEET 1 1020 740
WIRE -304 32 -672 32
WIRE -64 80 -96 80
WIRE 48 80 16 80
WIRE 192 80 112 80
WIRE 240 80 192 80
WIRE 416 80 320 80
WIRE 512 80 416 80
WIRE 688 80 512 80
WIRE 944 80 688 80
WIRE 960 80 944 80
WIRE -672 96 -672 32
WIRE -512 96 -672 96
WIRE -400 96 -512 96
WIRE 512 112 512 80
WIRE -400 128 -400 96
WIRE -304 128 -304 32
WIRE -96 128 -96 80
WIRE 192 128 192 80
WIRE 416 128 416 80
WIRE -672 144 -672 96
WIRE -96 240 -96 208
WIRE 192 240 192 192
WIRE 192 240 -96 240
WIRE 352 240 192 240
WIRE 416 240 416 192
WIRE 416 240 352 240
WIRE 512 240 512 192
WIRE 512 240 416 240
WIRE 352 256 352 240
WIRE 944 256 944 80
WIRE 944 256 864 256
WIRE 640 272 576 272
WIRE 800 272 704 272
WIRE 80 304 -576 304
WIRE 368 336 256 336
WIRE -672 352 -672 224
WIRE -592 352 -672 352
WIRE -400 352 -400 208
WIRE -400 352 -496 352
WIRE 80 352 80 304
WIRE 192 352 80 352
WIRE 864 352 864 256
WIRE 944 352 944 320
WIRE 288 368 256 368
WIRE 368 368 368 336
WIRE 448 368 368 368
WIRE 576 368 576 272
WIRE 592 368 576 368
WIRE 704 368 656 368
WIRE 800 368 800 272
WIRE 800 368 784 368
WIRE 224 432 224 384
WIRE 688 432 640 432
WIRE -672 448 -672 352
WIRE -464 448 -672 448
WIRE -304 448 -304 208
WIRE -304 448 -400 448
WIRE 640 448 640 432
WIRE 800 464 800 368
WIRE 800 464 672 464
WIRE 864 464 864 432
WIRE 864 464 800 464
WIRE 944 464 944 432
WIRE 944 464 864 464
WIRE 448 480 448 368
WIRE 576 480 576 368
WIRE 576 480 448 480
WIRE 608 480 576 480
WIRE 688 496 688 432
WIRE 688 496 672 496
WIRE 752 496 688 496
WIRE 864 496 864 464
WIRE 288 544 288 368
FLAG 224 320 0
FLAG 288 624 0
FLAG 224 512 0
FLAG 640 512 0
FLAG 752 576 0
FLAG 864 576 0
FLAG 688 80 Voutput
FLAG 352 256 0
FLAG -512 96 V_in
FLAG -672 448 0
SYMBOL voltage -672 128 R0
WINDOW 123 0 0 Left 2
WINDOW 39 0 0 Left 2
SYMATTR InstName V1
SYMATTR Value 48
SYMBOL ind2 -416 224 M180
WINDOW 0 36 80 Left 2
WINDOW 3 36 40 Left 2
SYMATTR InstName L1
SYMATTR Value 1.3m
SYMATTR SpiceLine Rser=1m
SYMATTR Type ind
SYMBOL cap 400 128 R0
SYMATTR InstName C1
SYMATTR Value 33µ
SYMATTR SpiceLine Rser=5m
SYMBOL Opamps\\UniversalOpamp2 224 352 R180
SYMATTR InstName U1
SYMBOL voltage 288 528 R0
WINDOW 123 0 0 Left 2
WINDOW 39 0 0 Left 2
SYMATTR InstName V2
SYMATTR Value PULSE(0 1.8 0 39.9u 0 0 40u)
SYMBOL voltage 224 416 R0
WINDOW 123 0 0 Left 2
WINDOW 39 0 0 Left 2
SYMATTR InstName V3
SYMATTR Value 10
SYMBOL res 800 352 R90
WINDOW 0 0 56 VBottom 2
WINDOW 3 32 56 VTop 2
SYMATTR InstName R1
SYMATTR Value 8568
SYMBOL cap 656 352 R90
WINDOW 0 0 32 VBottom 2
WINDOW 3 32 32 VTop 2
SYMATTR InstName CC1
SYMATTR Value 186n
SYMBOL cap 704 256 R90
WINDOW 0 0 32 VBottom 2
WINDOW 3 32 32 VTop 2
SYMATTR InstName CC2
SYMATTR Value 2.93n
SYMBOL Opamps\\UniversalOpamp2 640 480 M0
SYMATTR InstName U2
SYMBOL voltage 752 480 R0
WINDOW 123 0 0 Left 2
WINDOW 39 0 0 Left 2
SYMATTR InstName V4
SYMATTR Value 1.2
SYMBOL res 848 336 R0
SYMATTR InstName RF1
SYMATTR Value 273.5K
SYMBOL res 928 336 R0
SYMATTR InstName RF3
SYMATTR Value 2.1k
SYMBOL cap 928 256 R0
SYMATTR InstName CF3
SYMATTR Value 2.2n
SYMBOL res 848 480 R0
SYMATTR InstName RF2
SYMATTR Value 23.8K
SYMBOL res 496 96 R0
SYMATTR InstName R5
SYMATTR Value 4.69
SYMBOL ind2 -112 112 R0
SYMATTR InstName L2
SYMATTR Value 2.925m
SYMATTR Type ind
SYMATTR SpiceLine Rser=1m
SYMBOL ind2 -320 112 R0
SYMATTR InstName L3
SYMATTR Value 1.3m
SYMATTR Type ind
SYMATTR SpiceLine Rser=1m
SYMBOL ind 336 64 R90
WINDOW 0 5 56 VBottom 2
WINDOW 3 32 56 VTop 2
SYMATTR InstName L4
SYMATTR Value 0.675m
SYMATTR SpiceLine Rser=60m
SYMBOL nmos -496 304 R90
SYMATTR InstName M1
SYMATTR Value BSZ900N20NS3
SYMBOL diode 208 192 R180
WINDOW 0 24 64 Left 2
WINDOW 3 24 0 Left 2
SYMATTR InstName D1
SYMBOL diode 48 96 R270
WINDOW 0 32 32 VTop 2
WINDOW 3 0 32 VBottom 2
SYMATTR InstName D3
SYMBOL diode -464 464 R270
WINDOW 0 32 32 VTop 2
WINDOW 3 0 32 VBottom 2
SYMATTR InstName D2
SYMBOL ind 32 64 R90
WINDOW 0 5 56 VBottom 2
WINDOW 3 32 56 VTop 2
SYMATTR InstName L5
SYMATTR Value 10µ
TEXT -96 648 Left 2 !.tran 0 10ms 0.01ms 0.01ms
TEXT -256 264 Left 2 ;K L1 L2 L3 1
TEXT -144 352 Left 2 !K L1 L2 L3 1
